[General]
sim-time-limit = 1000s

[Config HWCA]
network = InfrastructureNetwork
description = "Baseline infrastructure Wi-Fi scenario: Robots connect to APs"
sim-time-limit = 100s
